powerflow/autotest/test_OHLine.glm
//Overhead Line Self-Test
//Tests phases A, B, C and ABC
//Power in and power out must be within .1 W  
//  of correct values

//#include "../../core/rt/debugger.conf"

#set iteration_limit=100

clock {
	timezone EST+5EDT;
	starttime '2000-01-01 00:00:00 EST';
}

module powerflow;
module assert;

///////////////////////////////////////////////////////
// test 1: overhead line 
///////////////////////////////////////////////////////
// A phase

object overhead_line {
	phases AN;
	length 300 ft;
	configuration object line_configuration {
		conductor_A object overhead_line_conductor {
			geometric_mean_radius 0.00446 ft;
			resistance 1.12 Ohm/mile;
			rating.summer.continuous 500;
		};
		conductor_N object overhead_line_conductor {
			geometric_mean_radius 0.00446 ft;
			resistance 1.12 Ohm/mile;
			rating.summer.continuous 500;
		};
		spacing object line_spacing {
			distance_AN 5.0249 ft;
		};
	};
	from object node {
		name OH_fA;
		phases AN;
		voltage_A 7200 + 0j;
		nominal_voltage 7200;
		maximum_voltage_error 1;
		
	};
	to object load {
		name OH_tA;
		phases AN;
		voltage_A 7200 + 0j;
		constant_current_A  1;
		constant_power_A 1500 + 750j;
		constant_impedance_A 1000 + 2000j;
		nominal_voltage 7200;
	};
	object double_assert {
		target "power_out";
		value 28724.003011;
		within .1;
	};
	object double_assert {
		target "power_in";
		value 28725.712418;
		within .1;
	};	
};

// B phase

object overhead_line {
	phases BN;
	length 300 ft;
	configuration object line_configuration {
		conductor_B object overhead_line_conductor {
			geometric_mean_radius 0.00446 ft;
			resistance 1.12 Ohm/mile;
			rating.summer.continuous 500;
		};
		conductor_N object overhead_line_conductor {
			geometric_mean_radius 0.00446 ft;
			resistance 1.12 Ohm/mile;
			rating.summer.continuous 500;
		};
		spacing object line_spacing {
			distance_BN 5.0249 ft;
		};
	};
	from object node {
		name OH_fB;
		phases BN;
		voltage_B -3600 - 6235.4j;
		nominal_voltage 7200;
		maximum_voltage_error 1;
		
	};
	to object load {
		name OH_tB;
		phases BN;
		voltage_B -3600 - 6235.4j;
		constant_current_B  -0.5-0.866j;
		constant_power_B 1500 + 750j;
		constant_impedance_B 1000 + 2000j;
		nominal_voltage 7200;
	//	maximum_voltage_error 1;		
		
	};
	object double_assert {
		target "power_out";
		value 28724.003011;
		within .1;
	};
	object double_assert {
		target "power_in";
		value 28725.712418;
		within .1;
	};	
};

// C phase

object overhead_line {
	phases CN;
	length 300 ft;
	configuration object line_configuration {
		conductor_C object overhead_line_conductor {
			geometric_mean_radius 0.00446 ft;
			resistance 1.12 Ohm/mile;
		};
		conductor_N object overhead_line_conductor {
			geometric_mean_radius 0.00446 ft;
			resistance 1.12 Ohm/mile;
		};
		spacing object line_spacing {
			distance_CN 5.0249 ft;
		};
	};
	from object node {
		name OH_fC;
		phases CN;
		voltage_C -3600 + 6235.4j;
		nominal_voltage 7200.00;
	};
	to object load {
		name OH_tC;
		phases CN;		
		voltage_C -3600 + 6235.4j;
		constant_current_C  -0.5+0.866j;
		constant_power_C 1500 + 750j;
		constant_impedance_C 1000+2000j;
		nominal_voltage 7200.00;
	};
	object double_assert {
		target "power_out";
		value 28724.003011;
		within .1;
	};
	object double_assert {
		target "power_in";
		value 28725.712418;
		within .1;
	};		
};

// ABCN phase

object overhead_line {
	phases ABCN;
	length 300 ft;
	configuration object line_configuration {
		conductor_A object overhead_line_conductor {
			geometric_mean_radius 0.00446 ft;
			resistance 1.12 Ohm/mile;
		};
		conductor_B object overhead_line_conductor {
			geometric_mean_radius 0.00446 ft;
			resistance 1.12 Ohm/mile;
		};
		conductor_C object overhead_line_conductor {
			geometric_mean_radius 0.00446 ft;
			resistance 1.12 Ohm/mile;
		};
		conductor_N object overhead_line_conductor {
			geometric_mean_radius 0.00446 ft;
			resistance 1.12 Ohm/mile;
		};
		spacing object line_spacing {
			distance_AB 7 ft;
			distance_BC 7 ft;
			distance_AC 7 ft;
			distance_AN 5.0249 ft;
			distance_BN 5.0249 ft;
			distance_CN 5.0249 ft;			
		};
	};
	from object node {
		name OH_fABC;
		phases ABCN;
		voltage_A 7200 + 0j;		
		voltage_B -3600 - 6235.4j;
		voltage_C -3600 + 6235.4j;
		nominal_voltage 7200.00;
	};
	to object load {
		name OH_tABC;
		phases ABCN;
		voltage_A 7200 + 0j;		
		voltage_B -3600 - 6235.4j;
		voltage_C -3600 + 6235.4j;
		constant_current_A  1;
		constant_current_B  -0.5-0.866j;
		constant_current_C  -0.5+0.866j;
		constant_power_A 1500 + 750j;
		constant_power_B 1500 + 750j;
		constant_power_C 1500 + 750j;
		constant_impedance_A 1000+2000j;
		constant_impedance_B 1000+2000j;
		constant_impedance_C 1000+2000j;
		nominal_voltage 7200.00;
	};
	object double_assert {
		target "power_out";
		value 86174.32449;
		within .1;
	};
	object double_assert {
		target "power_in";
		value 86178.15360;
		within .1;
	};	
};
